
_chemical_name_common	 'primitive cell from band.yaml of phonopy' 
_cell_length_a		 5.49117
_cell_length_b		 5.49117
_cell_length_c		 27.1353
_cell_angle_alpha		 91.73356
_cell_angle_beta		 91.73356
_cell_angle_gamma		 119.97465

loop_
_atom_site_label
_atom_site_fract_x
_atom_site_fract_y
_atom_site_fract_z
Ir1	       0.629811078462168  0.296411842045174  0.528928041456453
Ir2	       0.296411931353361  0.629810989153981  0.528928041456453
H1	       0.588851850163392  0.255566583840280  0.391901629838922
H2	       0.255566673148468  0.588851760855205  0.391901629838922
H3	       0.922769538326551  0.922769538326551  0.393662911125205
H4	       0.670656354464288  0.337371088141176  0.665954512662670
H5	       0.337371177449364  0.670656265156101  0.665954512662670
H6	       0.003453355214359  0.003453355214359  0.664193231376387
Na1	       0.963111437871838  0.963111437871838  0.528928041456453
Na2	       0.263165323645294  0.263165323645294  0.429823751291596
Na3	       0.663057477583069  0.663057477583069  0.628032391209996
Na4	       0.603736248272280  0.933427206646937  0.429809262618193
Na5	       0.992795654280267  0.322486612654924  0.628046909714662
Na6	       0.933427176919598  0.603736277999619  0.429809262618193
Na7	       0.322486582927585  0.992795684007606  0.628046909714662
O1	       0.322525444387366  0.951063743299972  0.488405861970410
O2	       0.603697282359441  0.975159072765540  0.569450250773758
O3	       0.975159028106188  0.603697327018793  0.569450250773758
O4	       0.951063698640619  0.322525489046718  0.488405861970410
O5	       0.346666233523517  0.346666233523517  0.569452482603528
O6	       0.579556716838415  0.579556716838415  0.488403600309385

loop_
_atom_site_moment.label
_atom_site_moment.crystalaxis_x
_atom_site_moment.crystalaxis_y
_atom_site_moment.crystalaxis_z
Ir1  -0.000000  -0.037071  -0.000000 
Ir2  0.000000  -0.037071  -0.000000 
H1  -0.015828  0.011831  0.001704 
H2  0.015828  0.011831  -0.001704 
H3  -0.000000  -0.003808  0.000000 
H4  0.024761  0.018508  -0.002666 
H5  -0.024761  0.018508  0.002666 
H6  -0.000000  -0.005917  -0.000000 
Na1  -0.000000  0.106397  0.000000 
Na2  -0.000000  0.117357  -0.000000 
Na3  -0.000000  0.160162  0.000000 
Na4  0.080841  -0.005577  -0.030147 
Na5  -0.110333  -0.007611  0.041145 
Na6  -0.080841  -0.005577  0.030147 
Na7  0.110333  -0.007611  -0.041145 
O1  0.025353  -0.063781  -0.382471 
O2  0.028667  -0.072118  -0.432465 
O3  -0.028667  -0.072118  0.432465 
O4  -0.025353  -0.063781  0.382471 
O5  0.000000  -0.076517  0.000000 
O6  0.000000  -0.067671  -0.000000 
